Circuit: * C:\Users\atish\Desktop\LTSpice Simulations\Random\EE2019-master\Exp 6 - BandPass Filter\Bandpass Filter.asc

WARNING: Less than two connections to node NC_01.  This node is used by V5.
Direct Newton iteration for .op point succeeded.

Date: Fri Mar 15 14:25:45 2019
Total elapsed time: 0.281 seconds.

tnom = 27
temp = 27
method = modified trap
totiter = 29000
traniter = 28997
tranpoints = 12011
accept = 7216
rejected = 4795
matrix size = 18
fillins = 2
solver = Normal
Matrix Compiler1:      48 opcodes  0.1/[0.0]/0.1
Matrix Compiler2: 1.43 KB object code size  0.2/0.2/[0.1]

