Circuit: * C:\Users\atish\Desktop\LTSpice Simulations\Exp 5\HBridge.asc

WARNING: Less than two connections to node VBIAS.  This node is used by V4.
WARNING: Less than two connections to node VREF.  This node is used by V1.
Direct Newton iteration failed to find .op point.  (Use ".option noopiter" to skip.)
Starting Gmin stepping
Gmin = 10
Gmin = 1.07374
Gmin = 0.115292
Gmin = 0.0123794
Gmin = 0.00132923
vernier = 0.5
Gmin = 0.000377665
vernier = 0.666667
vernier = 0.333333
Gmin = 0.000148003
vernier = 0.444444
vernier = 0.592592
Gmin = 4.79701e-005
vernier = 0.790123
vernier = 1
Gmin = 8.59701e-006
vernier = 0.5
vernier = 0.25
vernier = 0.125
vernier = 0.0625
vernier = 0.03125
vernier = 0.015625
Gmin = 4.40167e-006
vernier = 0.0078125
vernier = 0.00390625
vernier = 0.00195313
vernier = 0.000976563
vernier = 0.000488281
Gmin = 0
Gmin stepping failed

Starting source stepping with srcstepmethod=0
Source Step = 3.0303%
Source Step = 33.3333%
Source Step = 63.6364%
Source Step = 93.9394%
Source stepping succeeded in finding the operating point.


Date: Fri Mar 08 15:13:55 2019
Total elapsed time: 121.997 seconds.

tnom = 27
temp = 27
method = modified trap
totiter = 4275252
traniter = 4273061
tranpoints = 1475697
accept = 1076827
rejected = 398870
matrix size = 77
fillins = 58
solver = Normal
Thread vector: 53.4/23.8[4] 11.8/4.9[4] 14.2/6.7[4] 0.6/2.8[1]  2592/500
Matrix Compiler1: 6.11 KB object code size  1.7/0.9/[0.4]
Matrix Compiler2: 7.16 KB object code size  1.8/2.6/[1.0]

