Circuit: * C:\Users\atish\Desktop\LTSpice Simulations\new\EE2019\Exp 7 - Adder and Peak Detector\Adder and Peak Detector.asc

WARNING: Less than two connections to node NC_01.  This node is used by V5.
Direct Newton iteration for .op point succeeded.

Date: Tue Apr 02 23:33:27 2019
Total elapsed time: 0.788 seconds.

tnom = 27
temp = 27
method = modified trap
totiter = 91814
traniter = 91764
tranpoints = 31793
accept = 21106
rejected = 10687
matrix size = 25
fillins = 10
solver = Normal
Matrix Compiler1: 1.61 KB object code size  0.3/0.2/[0.1]
Matrix Compiler2: off  [0.2]/0.3/0.3

