Circuit: * C:\Users\atish\Desktop\LTSpice Simulations\Exp2\NOCL_Power_Stage.asc

Direct Newton iteration failed to find .op point.  (Use ".option noopiter" to skip.)
Starting Gmin stepping
Gmin = 10
Gmin = 1.07374
Gmin = 0.115292
Gmin = 0.0123794
Gmin = 0.00132923
vernier = 0.5
Gmin = 0.000223007
vernier = 0.25
vernier = 0.333333
Gmin = 0.000124738
vernier = 0.444444
Gmin = 4.81288e-005
vernier = 0.592592
vernier = 0.790123
Gmin = 1.02158e-005
vernier = 1
vernier = 0.5
vernier = 0.25
vernier = 0.125
vernier = 0.0625
vernier = 0.03125
Gmin = 4.55908e-006
vernier = 0.015625
vernier = 0.0078125
vernier = 0.00390625
vernier = 0.00195313
vernier = 0.000976563
vernier = 0.000488281
Gmin = 0
Gmin stepping failed

Starting source stepping with srcstepmethod=0
Source Step = 3.0303%
Source Step = 33.3333%
Source Step = 63.6364%
Source Step = 93.9394%
Source stepping succeeded in finding the operating point.

.step v5=2
Heightened Def Con from 9.37866e-005 to 9.37877e-005
Heightened Def Con from 0.000174918 to 0.000174919
Heightened Def Con from 0.000185059 to 0.00018506
Heightened Def Con from 0.0001952 to 0.000195201
Heightened Def Con from 0.000225624 to 0.000225626
Heightened Def Con from 0.000245907 ++++++++++++++++++to 0.000245907
Heightened Def Con from 0.000245907 to 0.000245908
Heightened Def Con from 0.000256049 +++++++++++++++++++to 0.000256055
Heightened Def Con from 0.000256055 to 0.000256061
Heightened Def Con from 0.000266189 to 0.00026619
Heightened Def Con from 0.000276331 ++++++++++++++++++to 0.000276337
Heightened Def Con from 0.000276337 to 0.000276342
Heightened Def Con from 0.000286472 ++++++++++++++++++to 0.000286478
Heightened Def Con from 0.000286478 to 0.000286483
Heightened Def Con from 0.000296614 +++++++++++++++to 0.00029662
Heightened Def Con from 0.000306756 to 0.000306762
Heightened Def Con from 0.000316897 to 0.0003169
Heightened Def Con from 0.000327039 to 0.000327042
Heightened Def Con from 0.000337179 to 0.000337185
Heightened Def Con from 0.00034732 to 0.000347326
Heightened Def Con from 0.00035746 to 0.000357466
Heightened Def Con from 0.000367602 to 0.000367608
Heightened Def Con from 0.000377745 to 0.000377751
Heightened Def Con from 0.000387886 to 0.000387892
Heightened Def Con from 0.000398028 to 0.000398034
Heightened Def Con from 0.000408169 to 0.000408175
Heightened Def Con from 0.000418309 to 0.000418315
Heightened Def Con from 0.000428451 to 0.000428457
Heightened Def Con from 0.000438593 to 0.000438599
Heightened Def Con from 0.000448735 to 0.000448741
Heightened Def Con from 0.000458877 to 0.000458883
Heightened Def Con from 0.000469018 to 0.000469024
Heightened Def Con from 0.000479159 to 0.000479165
Heightened Def Con from 0.000489301 to 0.000489307
Heightened Def Con from 0.000499444 to 0.00049945
Heightened Def Con from 0.000509586 to 0.000509592
Heightened Def Con from 0.000529871 to 0.000529877
Heightened Def Con from 0.000550154 to 0.00055016
Heightened Def Con from 0.000560296 to 0.000560302
Heightened Def Con from 0.000570437 to 0.000570443
Heightened Def Con from 0.00058058 to 0.000580586
Heightened Def Con from 0.000590721 to 0.000590727
Heightened Def Con from 0.000611003 to 0.000611009
Heightened Def Con from 0.000621146 to 0.000621152
Heightened Def Con from 0.000631287 to 0.000631293
Heightened Def Con from 0.000651571 to 0.000651577
Heightened Def Con from 0.000661713 to 0.000661719
Heightened Def Con from 0.000671854 to 0.000671859
Heightened Def Con from 0.000681994 to 0.000681999
Heightened Def Con from 0.000692136 to 0.000692141
Heightened Def Con from 0.000712419 to 0.000712424
Heightened Def Con from 0.000722561 to 0.000722566
Heightened Def Con from 0.000732702 to 0.000732707
Heightened Def Con from 0.000752985 to 0.00075299
Heightened Def Con from 0.000763126 to 0.000763131
Heightened Def Con from 0.00077327 to 0.000773275
Heightened Def Con from 0.000783413 to 0.000783418
Heightened Def Con from 0.000793552 to 0.000793557
Heightened Def Con from 0.000803694 to 0.000803699
Heightened Def Con from 0.000813837 to 0.000813842
Heightened Def Con from 0.000823978 to 0.000823983
Heightened Def Con from 0.000844263 to 0.000844268
Heightened Def Con from 0.000854405 to 0.00085441
Heightened Def Con from 0.000874688 to 0.000874693
Heightened Def Con from 0.000884827 to 0.000884832
Heightened Def Con from 0.000894967 to 0.000894972
Heightened Def Con from 0.000905109 to 0.000905114
Heightened Def Con from 0.00091525 to 0.000915255
Heightened Def Con from 0.000935533 to 0.000935538
Heightened Def Con from 0.000945675 to 0.00094568
Heightened Def Con from 0.000976103 to 0.000976108
Heightened Def Con from 0.000986245 to 0.00098625
Heightened Def Con from 0.00100653 to 0.00100653
Heightened Def Con from 0.00101667 to 0.00101667
Heightened Def Con from 0.00103695 to 0.00103695
Heightened Def Con from 0.00105723 to 0.00105724
Heightened Def Con from 0.00106737 to 0.00106738
Heightened Def Con from 0.00107751 to 0.00107752
Heightened Def Con from 0.00108766 to 0.00108766
Heightened Def Con from 0.0010978 to 0.0010978
Heightened Def Con from 0.00110794 to 0.00110794
Heightened Def Con from 0.00111808 to 0.00111809
Heightened Def Con from 0.00112822 to 0.00112823
Heightened Def Con from 0.00113836 to 0.00113837
Heightened Def Con from 0.0011485 to 0.00114851
Heightened Def Con from 0.00115865 to 0.00115865
Heightened Def Con from 0.00116879 to 0.00116879
Heightened Def Con from 0.00117893 to 0.00117893
Heightened Def Con from 0.00118907 to 0.00118907
Heightened Def Con from 0.00119921 to 0.00119922
Heightened Def Con from 0.00120935 to 0.00120936
Heightened Def Con from 0.00121949 to 0.0012195
Heightened Def Con from 0.00122964 to 0.00122964
Heightened Def Con from 0.00124992 to 0.00124992
Heightened Def Con from 0.0012702 to 0.00127021
Heightened Def Con from 0.00129048 to 0.00129049
Heightened Def Con from 0.00130063 to 0.00130063
Heightened Def Con from 0.00131077 to 0.00131077
Heightened Def Con from 0.00132091 to 0.00132091
Heightened Def Con from 0.00133105 to 0.00133106
Heightened Def Con from 0.00134119 to 0.0013412
Heightened Def Con from 0.00135133 to 0.00135134
Heightened Def Con from 0.00136148 to 0.00136148
Heightened Def Con from 0.0013919 to 0.0013919
Heightened Def Con from 0.00140204 to 0.00140204
Heightened Def Con from 0.00141218 to 0.00141219
Heightened Def Con from 0.00142232 to 0.00142233
Heightened Def Con from 0.00143246 to 0.00143247
Heightened Def Con from 0.00146289 to 0.00146289
Heightened Def Con from 0.00147303 to 0.00147303
Heightened Def Con from 0.00148317 to 0.00148317
Heightened Def Con from 0.00149331 to 0.00149331
Heightened Def Con from 0.00150345 to 0.00150346
Heightened Def Con from 0.00152373 to 0.00152374
Heightened Def Con from 0.00155416 to 0.00155416
Heightened Def Con from 0.0015643 to 0.0015643
Heightened Def Con from 0.00157444 to 0.00157444
Heightened Def Con from 0.00158458 to 0.00158459
Heightened Def Con from 0.00159472 to 0.00159473
Heightened Def Con from 0.00160486 to 0.00160487
Heightened Def Con from 0.001615 to 0.00161501
Heightened Def Con from 0.00163529 to 0.00163529
Heightened Def Con from 0.00165557 to 0.00165558
.step v5=2.25
.step v5=2.5
.step v5=2.75
.step v5=3

Date: Mon Feb 18 19:16:01 2019
Total elapsed time: 48.141 seconds.

tnom = 27
temp = 27
method = modified trap
totiter = 587959
traniter = 585798
tranpoints = 129576
accept = 84681
rejected = 46631
matrix size = 40
fillins = 24
solver = Normal
Thread vector: 11.6/7.9[2] 2.7/2.0[2] 3.3/2.2[2] 0.1/0.9[1]  2592/500
Matrix Compiler1: 2.80 KB object code size  0.7/0.4/[0.2]
Matrix Compiler2: 3.63 KB object code size  0.4/0.5/[0.4]

