Circuit: * C:\Users\atish\Desktop\LTSpice Simulations\Exp 3\Ac_Analysis.asc

WARNING: Node NC_02 is floating.

WARNING: Less than two connections to node VCM.  This node is used by V3.
WARNING: Less than two connections to node VBIAS.  This node is used by V4.
WARNING: Less than two connections to node NC_01.  This node is used by R4.
WARNING: Less than two connections to node NC_02.  This node is used by R4.
Direct Newton iteration for .op point succeeded.

Date: Fri Feb 22 15:45:27 2019
Total elapsed time: 0.521 seconds.

tnom = 27
temp = 27
method = trap
totiter = 37
traniter = 0
tranpoints = 0
accept = 0
rejected = 0
matrix size = 21
fillins = 6
solver = Normal
Matrix Compiler1:      56 opcodes
Matrix Compiler2:     122 opcodes
