Circuit: * C:\Users\atish\Desktop\LTSpice Simulations\Exp 3\NOCL_Power_Stage.asc

Direct Newton iteration failed to find .op point.  (Use ".option noopiter" to skip.)
Starting Gmin stepping
Gmin = 10
Gmin = 1.07374
Gmin = 0.115292
Gmin = 0.0123794
Gmin = 0.00132923
Gmin = 0.000142725
Gmin = 1.5325e-005
vernier = 0.5
vernier = 0.25
vernier = 0.125
vernier = 0.0625
Gmin = 5.02168e-006
vernier = 0.03125
vernier = 0.015625
vernier = 0.0078125
vernier = 0.00390625
vernier = 0.00195313
vernier = 0.000976563
vernier = 0.000488281
Gmin = 0
Gmin stepping failed

Starting source stepping with srcstepmethod=0
Source Step = 3.0303%
vernier = 0.25
Source Step = 0.0177557%
Starting source stepping with srcstepmethod=1
Source Step = 3.0303%
vernier = 0.25
Source stepping failed

Pseudo transient terminated at 101.124 s, solution accepted ready or not!

Date: Fri Feb 22 15:25:30 2019
Total elapsed time: 1.411 seconds.

tnom = 27
temp = 27
method = trap
totiter = 8816
traniter = 0
tranpoints = 0
accept = 0
rejected = 27
matrix size = 56
fillins = 74
solver = Normal
Matrix Compiler1:     320 opcodes  4.6/[2.3]/2.5
Matrix Compiler2: off  [1.8]/4.0/2.8

