Circuit: * C:\Users\atish\Desktop\LTSpice Simulations\Exp 1\PWM.asc

Direct Newton iteration failed to find .op point.  (Use ".option noopiter" to skip.)
Starting Gmin stepping
Gmin = 10
Gmin = 1.07374
Gmin = 0.115292
Gmin = 0.0123794
Gmin = 0.00132923
vernier = 0.5
Gmin = 0.000223007
vernier = 0.25
vernier = 0.333333
Gmin = 0.000124738
vernier = 0.444444
Gmin = 4.81288e-005
vernier = 0.592592
vernier = 0.790123
Gmin = 1.02158e-005
vernier = 1
vernier = 0.5
vernier = 0.25
vernier = 0.125
vernier = 0.0625
vernier = 0.03125
Gmin = 4.55908e-006
vernier = 0.015625
vernier = 0.0078125
vernier = 0.00390625
vernier = 0.00195313
vernier = 0.000976563
vernier = 0.000488281
Gmin = 0
Gmin stepping failed

Starting source stepping with srcstepmethod=0
Source Step = 3.0303%
Source Step = 33.3333%
Source Step = 63.6364%
Source Step = 93.9394%
Source stepping succeeded in finding the operating point.


Date: Sun Feb 03 11:27:58 2019
Total elapsed time: 1.621 seconds.

tnom = 27
temp = 27
method = modified trap
totiter = 148314
traniter = 146109
tranpoints = 39895
accept = 29166
rejected = 10729
matrix size = 31
fillins = 27
solver = Normal
Thread vector: 20.2/17.9[2] 1.6/1.6[1] 3.6/3.2[2] 0.2/0.9[1]  2592/500
Matrix Compiler1: 2.76 KB object code size  0.7/0.3/[0.1]
Matrix Compiler2: 3.61 KB object code size  0.6/0.9/[0.4]

